[General]
network = Bar
cpu-time-limit = 60s
#debug-on-errors = true
sim-time-limit = 1000000s
